%mem=128GB
%nprocshared=32
%chk=result/data_human/OPS_human_7.chk
#p opt B3LYP/6-31G(d)

Generated by RDKit

0 1
O    9.257824    -1.483207    0.897446
C    8.400104    -0.808895    0.269362
N    8.720104    0.144840    -0.741905
C    7.455645    0.651122    -1.165931
O    7.312026    1.525468    -2.060235
C    6.378649    0.011282    -0.418074
C    4.997721    0.179128    -0.488487
C    4.177894    -0.593144    0.370807
C    2.699099    -0.455272    0.337159
C    1.976080    0.561178    -0.316082
C    0.608016    0.386294    -0.143085
S    -0.746931    1.235153    -0.653431
C    -1.820453    0.156604    0.118363
N    -3.250035    0.279697    0.090193
C    -3.915480    1.264855    0.917738
C    -3.203506    2.106646    1.798524
C    -3.881151    3.044818    2.582616
C    -5.270793    3.152702    2.504329
C    -5.988733    2.318976    1.644945
C    -5.319204    1.376465    0.857625
O    -6.054946    0.541462    0.013629
C    -5.442180    -0.422440    -0.790304
C    -6.231269    -1.231155    -1.614784
C    -5.635224    -2.192704    -2.432824
C    -4.247800    -2.347281    -2.432106
C    -3.451244    -1.543975    -1.610908
C    -4.041010    -0.573994    -0.772506
C    -1.126335    -0.865448    0.773177
C    0.239596    -0.690709    0.596451
S    1.599248    -1.523012    1.102121
C    4.788962    -1.511970    1.267499
C    6.186141    -1.658511    1.314097
C    6.955311    -0.879809    0.456675
H    9.666310    0.411264    -1.093473
H    4.585063    0.879618    -1.200467
H    2.404686    1.383926    -0.870320
H    -2.127905    2.042783    1.889648
H    -3.327322    3.688246    3.254105
H    -5.792125    3.879955    3.113260
H    -7.066834    2.401795    1.592122
H    -7.307160    -1.111348    -1.622291
H    -6.248702    -2.816143    -3.070359
H    -3.787698    -3.090180    -3.070883
H    -2.379451    -1.684499    -1.640085
H    -1.583855    -1.670423    1.332491
H    4.189638    -2.112736    1.938456
H    6.649227    -2.357422    1.998502

