%mem=128GB
%nprocshared=32
%chk=result/data_human/OPS_human_2.chk
#p opt B3LYP/6-31G(d)

Generated by RDKit

0 1
C    2.330226    -0.658265    0.924541
C    3.378168    0.283635    0.381235
C    4.722931    -0.111219    0.420460
C    5.733560    0.713021    -0.092532
C    7.145428    0.265090    -0.061106
C    8.161497    0.688731    -0.935031
C    9.363722    0.055667    -0.635089
S    10.903286    0.096540    -1.303571
C    11.520523    -1.045297    -0.191894
N    12.879837    -1.507165    -0.167622
C    13.704151    -1.586143    0.908600
C    13.440720    -1.199243    2.227637
C    14.463151    -1.356650    3.181472
C    15.720152    -1.879856    2.807353
C    15.971790    -2.249517    1.473831
C    14.941616    -2.084498    0.550188
C    14.880921    -2.327047    -0.802434
C    15.810799    -2.845536    -1.697692
N    15.430923    -2.999098    -3.001023
C    14.175168    -2.666038    -3.435738
C    13.223465    -2.139960    -2.542190
C    13.616144    -1.965408    -1.212140
C    10.523682    -1.454199    0.702858
C    9.328363    -0.810263    0.409799
S    7.781832    -0.875035    1.046505
C    5.392456    1.965220    -0.621657
C    4.058736    2.402815    -0.645780
C    3.753402    3.775734    -1.195318
C    3.036804    1.552718    -0.154151
B    1.513465    2.004801    -0.210967
C    0.663939    1.751058    -1.525739
C    1.310732    1.453891    -2.738566
C    0.569243    1.232122    -3.900532
C    -0.822939    1.290274    -3.865724
C    -1.481285    1.563597    -2.665411
C    -0.748595    1.793447    -1.486662
B    -1.514840    2.064489    -0.127575
C    -3.037086    1.630714    0.007899
C    -4.072860    2.579755    -0.164570
C    -3.771144    4.033169    -0.437476
C    -5.411987    2.160717    -0.112452
C    -5.747747    0.815769    0.115770
C    -7.175126    0.386594    0.123426
C    -7.648855    -0.925267    0.326803
C    -9.033205    -0.978971    0.223342
S    -10.152971    -2.225524    0.293794
C    -11.469971    -1.186734    -0.023720
N    -12.834248    -1.617550    -0.133421
C    -13.914316    -1.104416    0.507420
C    -13.949998    -0.059050    1.436269
C    -15.192801    0.282350    2.000721
C    -16.363554    -0.417983    1.639336
C    -16.307523    -1.472305    0.711647
C    -15.064521    -1.792250    0.169255
C    -14.680171    -2.768648    -0.721086
C    -15.398619    -3.743117    -1.405611
N    -14.716918    -4.564826    -2.257123
C    -13.365534    -4.451141    -2.452380
C    -12.624074    -3.473398    -1.763933
C    -13.318345    -2.639654    -0.883112
C    -11.034106    0.134217    -0.181992
C    -9.653605    0.198026    -0.036819
S    -8.514952    1.417675    -0.168216
C    -4.711668    -0.112227    0.316345
C    -3.363975    0.276535    0.263652
C    -2.293221    -0.770909    0.472768
C    -0.665800    2.396128    1.166587
C    -1.319279    2.694157    2.375473
C    -0.581459    2.978268    3.526429
C    0.812272    2.971284    3.483542
C    1.476148    2.674979    2.291941
C    0.747823    2.379174    1.125723
H    1.527109    -0.813316    0.174056
H    1.892730    -0.236003    1.852682
H    2.755266    -1.653894    1.169536
H    4.979847    -1.080448    0.833651
H    8.031319    1.380004    -1.754735
H    12.487720    -0.777295    2.515632
H    14.287133    -1.068889    4.209524
H    16.498211    -1.995499    3.551033
H    16.935980    -2.641278    1.176548
H    16.805084    -3.125133    -1.377408
H    13.914356    -2.813222    -4.474489
H    12.226226    -1.896513    -2.882262
H    10.654695    -2.176568    1.495542
H    6.171964    2.616337    -0.995680
H    4.678887    4.337115    -1.446186
H    3.147083    3.689345    -2.117922
H    3.193833    4.370232    -0.443297
H    2.389348    1.395086    -2.798384
H    1.074953    1.015920    -4.833188
H    -1.394241    1.119977    -4.768559
H    -2.564581    1.595438    -2.664886
H    -3.134087    4.445216    0.372666
H    -4.695532    4.647134    -0.488877
H    -3.238439    4.127534    -1.406480
H    -6.196133    2.892349    -0.257433
H    -7.042203    -1.798720    0.514116
H    -13.053669    0.470899    1.729659
H    -15.249051    1.085761    2.723974
H    -17.311639    -0.145093    2.084085
H    -17.198829    -2.019955    0.436212
H    -16.467426    -3.850080    -1.278085
H    -12.865653    -5.117689    -3.143727
H    -11.560430    -3.372775    -1.928806
H    -11.672116    0.975559    -0.420248
H    -4.941267    -1.151371    0.504214
H    -1.644084    -0.832940    -0.424582
H    -2.724534    -1.777393    0.646600
H    -1.674743    -0.504579    1.354761
H    -2.400594    2.709093    2.436947
H    -1.092048    3.207738    4.452822
H    1.380744    3.193278    4.377650
H    2.559034    2.676683    2.286096

