%mem=128GB
%nprocshared=32
%chk=result/data_human/OPS_human_9.chk
#p opt B3LYP/6-31G(d)

Generated by RDKit

0 1
C    8.405578    0.258276    3.997660
C    8.228368    -0.923108    3.272326
C    7.292125    -0.976341    2.234601
C    6.522888    0.157298    1.917334
P    5.299853    0.165692    0.530106
S    4.678376    -1.910614    0.419341
C    2.954087    -1.567392    0.059413
N    1.998532    -2.532461    0.145595
C    0.891298    -1.863760    -0.213572
C    -0.409209    -2.369498    -0.346281
C    -1.371745    -1.437418    -0.760223
O    -2.644441    -1.620805    -0.979100
C    -3.117626    -0.438424    -1.341219
S    -4.831796    -0.162530    -1.761247
P    -5.389076    0.033345    0.318249
C    -6.763416    -1.198487    0.508216
C    -7.142073    -1.574504    1.804006
C    -8.172800    -2.498512    2.003281
C    -8.840473    -3.045264    0.904222
C    -8.481905    -2.666711    -0.392584
C    -7.451763    -1.743257    -0.592503
C    -6.262422    1.653274    0.210648
C    -5.542546    2.816971    0.513992
C    -6.148504    4.073267    0.402356
C    -7.477389    4.174244    -0.015111
C    -8.200916    3.018439    -0.326512
C    -7.595021    1.761599    -0.226129
N    -2.179714    0.546568    -1.375177
C    -1.070513    -0.114870    -1.002813
C    0.235265    0.388372    -0.880109
C    1.202010    -0.549665    -0.488080
O    2.486390    -0.384983    -0.321261
C    6.447736    0.251452    -0.909986
C    7.320443    -0.803213    -1.226578
C    8.179204    -0.703350    -2.326048
C    8.178911    0.450904    -3.113221
C    7.318317    1.506816    -2.799788
C    6.456755    1.409103    -1.699167
C    6.714290    1.340991    2.642712
C    7.648338    1.388701    3.683824
H    9.129017    0.298079    4.798307
H    8.818768    -1.797338    3.513389
H    7.177633    -1.899797    1.688343
H    -0.650564    -3.406905    -0.159444
H    -6.632857    -1.160021    2.663148
H    -8.453389    -2.797105    3.005861
H    -9.636607    -3.765668    1.055109
H    -9.004112    -3.085022    -1.242959
H    -7.214284    -1.447227    -1.603196
H    -4.508112    2.750642    0.822027
H    -5.590230    4.969905    0.637677
H    -7.948663    5.146829    -0.096870
H    -9.230020    3.096467    -0.655047
H    -8.170849    0.887007    -0.492231
H    0.480562    1.421869    -1.082073
H    7.338181    -1.705505    -0.632601
H    8.847418    -1.520861    -2.566613
H    8.844590    0.529545    -3.963444
H    7.319656    2.404048    -3.405563
H    5.794996    2.235874    -1.464905
H    6.137803    2.227691    2.403531
H    7.785646    2.307352    4.241872

