%mem=128GB
%nprocshared=32
%chk=result/data_human/OPS_human_8.chk
#p opt B3LYP/6-31G(d)

Generated by RDKit

0 1
C    -4.197085    4.090858    -2.711916
O    -3.125955    3.257347    -3.142862
C    -2.384932    2.414673    -2.299942
C    -2.637715    2.316423    -0.921948
C    -1.868671    1.462058    -0.109808
O    -2.080712    1.379325    1.277536
C    -3.075593    2.104544    1.992859
C    -0.845638    0.683512    -0.693149
C    -0.028209    -0.227395    0.141781
C    -0.647368    -1.173330    1.004341
C    0.139536    -2.038344    1.784113
C    1.518105    -1.924046    1.662822
C    2.088509    -1.006667    0.815029
N    1.338393    -0.167599    0.060261
O    3.404366    -1.064273    0.844393
C    3.708059    -2.015567    1.707424
C    4.978387    -2.448768    2.079738
C    5.069430    -3.487986    3.025397
C    3.901486    -4.066706    3.573472
C    2.627838    -3.613573    3.183065
C    2.570375    -2.584436    2.246586
C    -0.585492    0.784094    -2.075609
O    0.436555    -0.002556    -2.634940
C    0.801932    0.000728    -4.011117
C    -1.360560    1.653231    -2.864434
H    -3.831888    4.826054    -1.964007
H    -5.010510    3.472935    -2.276280
H    -4.600082    4.643479    -3.585145
H    -3.424418    2.910170    -0.481655
H    -3.014571    1.837937    3.067783
H    -2.902319    3.196342    1.887638
H    -4.086240    1.837781    1.617922
H    -1.726269    -1.246770    1.058472
H    -0.312041    -2.765995    2.445776
H    5.867328    -2.000840    1.655315
H    6.042221    -3.846942    3.335237
H    3.987495    -4.864839    4.299241
H    1.728021    -4.050078    3.596702
H    1.137822    1.014713    -4.314669
H    -0.057884    -0.321910    -4.635396
H    1.638689    -0.710940    -4.164949
H    -1.180399    1.743358    -3.927024

