%mem=128GB
%nprocshared=32
%chk=result/data_human/OPS_human_3.chk
#p opt B3LYP/6-31G(d)

Generated by RDKit

0 1
N    5.539758    3.772396    -1.617694
C    5.083065    2.740551    -1.360784
C    4.512712    1.452419    -1.040042
C    3.137069    1.369491    -0.790498
C    2.537575    0.140247    -0.470325
C    1.078004    0.059774    -0.206516
C    0.584189    -0.734643    0.843188
C    -0.789109    -0.810035    1.091079
C    -1.697053    -0.096477    0.293860
N    -3.111106    -0.175225    0.558174
C    -3.782129    -1.479084    0.571645
C    -5.002220    -1.420732    1.495620
O    -5.841026    -0.333518    1.152486
C    -5.161114    0.886724    1.380568
C    -3.953088    1.019851    0.448079
C    -1.205956    0.702160    -0.751987
C    0.167150    0.778339    -1.000800
C    3.338099    -1.011946    -0.403044
C    4.714839    -0.943469    -0.650890
C    5.494670    -2.157314    -0.574059
N    6.119171    -3.129673    -0.512466
C    5.312574    0.292914    -0.971766
C    6.736529    0.371247    -1.229095
N    7.873715    0.433805    -1.434599
H    2.535279    2.270475    -0.828643
H    1.261948    -1.281224    1.486929
H    -1.142625    -1.409467    1.920157
H    -4.110798    -1.728965    -0.460300
H    -3.099646    -2.281598    0.922794
H    -4.680829    -1.360246    2.560686
H    -5.579895    -2.362197    1.382490
H    -4.843035    0.976453    2.444580
H    -5.860992    1.724612    1.178194
H    -4.304422    1.127941    -0.600966
H    -3.376862    1.928079    0.730534
H    -1.886475    1.254276    -1.387166
H    0.515262    1.384871    -1.827499
H    2.886773    -1.970811    -0.174389

